*****************************************************************
.MODEL BAR64 D(IS=880p RS=.9 N=1.305 BV=70 IBV=.1N
+ CJO=0.33P VJ=.8 M=.2 TT=1.25u)
* SIEMENS 40 Volt 125ns  Si-PIN-Switch  17-03-1996 Moschovis