*****************************************************************
.MODEL BAT15-03W D(Is=130n N=1.08 Rs=4.5 Xti=1.8 Eg=.68 Cjo=260f M=.047
+ Vj=.11 Fc=.5 Bv=4 Ibv=10u Tt=25p)
* Case SOD323, single diode
* Add R=3.3MEG parallel for better IR and R0 simulation
* 10.11.1994 SIEMENS HL EH PD1 Kurth