*****************************************************************
* BAT62 Diode Model
.MODEL BAT62 D(IS=120N RS=200 N=1.04 XTI=1.8 EG=.68
+ CJO=.35P M=.14 VJ=.4 FC=.5 BV=40 IBV=5U TT=25P)
* for 27C reverse current simulation use: GMIN=3e-8
* 20.12.1993 SIEMENS PD1 KURTH