*****************************************************************
* BAT60A Diode Model
.MODEL BAT60A D(IS=121U RS=0.158 N=1.04 XTI=2.06 EG=.500 
+ CJO=52.5P M=.250 VJ=.280 FC=.500 BV=8.0 IBV=1.00M TT=10P)
***************************************************************** 
* Attention! Model works for Temp < 110°C only                  *