*****************************************************************
.MODEL BAW78D D(
+       AF= 1.00E+00    BV= 4.00E+02   CJO= 5.40E-12    EG= 1.11E+00
+       FC= 5.00E-01   IBV= 1.00E-04    IS= 3.08E-11    KF= 0.00E+00
+        M= 4.62E-01     N= 1.51E+00    RS= 4.04E-01    TT= 1.44E-06
+       VJ= 8.00E-01   XTI= 3.00E+00)