*****************************************************************
* BB535 Diode Model
.MODEL BB535 D(IS=1.75E-15 N=1.043 RS=60E-3 XTI=3 EG=1.11 CJO=25.31E-12
+ M=1.064 VJ=3.022 FC=.5 BV=32 IBV=100E-9 TT=120E-9)
* hyperabrupt Diode, M=f(VR)! C-curve approximated between VR=1..28V
* VR range 0..6V: CJO=26.65pF VJ=1.51 M=0.69
* VR range 0..4V: CJO=26.7pF VJ=1.28 M=0.62
* Model includes Case capacitance Cc=0.11pF
* 07.09.96 SIEMENS PD1 Moschovis