*****************************************************************
* BB545 Diode Model
.MODEL BB545 D(IS=110.11E-15 RS=0.24545 N=1.2034 XTI=3 EG=1.11
+CJo=38.264P M=0.87698 Vj=0.91294 FC=0 BV=30 IBV=5E-6 TT=80N)
* Model includes Case capacitance Cc=0.11pF
* 23.10.96 SIMENS HL EH PD 1 Moschovis